myETL/UCT_Source/20221102_1230_FO3_PL0.uct
##C 2007.05.01
rate4                                                                           
Plik po przetworzeniu przez KorektorEPC                                         
Plik po weryfikacji modelu (SN)                                                 
##N
##ZPL
ZBEK1221 BELCHATOW KO 0 0 220.00    0.00    0.00    0.00    0.00    0.00    0.00    0.00    0.00 0.000    0.00    0.00  0.0000   
ZBEK1222 BELCHATOW KO 0 0 220.00    0.00    0.00    0.00    0.00    0.00    0.00    0.00    0.00 0.000    0.00    0.00  0.0000   
ZPAI1151       PIASKI 0 0 117.89    0.60   -1.83  -18.19   -4.45    0.00    0.00   18.20  -18.20 0.000    0.00    0.00  0.0000   
ZPAI1152       PIASKI 0 0 118.38   68.86   18.78    0.00    0.00    0.00    0.00    0.00    0.00 0.000    0.00    0.00  0.0000   
ZEKB1411       EKB411 0 0 410.00    0.00   54.24    0.00    0.00    0.00    0.00    0.00    0.00 0.000    0.00    0.00  0.0000   
ZEKB1151       EKB111 0 0 110.00    0.04    0.04    0.00    0.00    0.00    0.00    0.00    0.00 0.000    0.00    0.00  0.0000   
ZELK1221          ELK 0 0 220.00    0.00    0.00    0.00    0.00    0.00    0.00    0.00    0.00 0.000    0.00    0.00  0.0000   
ZELK1151          ELK 0 0 119.00   87.88  -26.10    0.00    0.00    0.00    0.00    0.00    0.00 0.000    0.00    0.00  0.0000   
ZJAN1221        JANOW 0 0 220.00    0.00    0.00    0.00    0.00    0.00    0.00    0.00    0.00 0.000    0.00    0.00  0.0000   
ZJAN1151        JANOW 0 0 118.00   88.95  -11.08    0.00    0.00    0.00    0.00    0.00    0.00 0.000    0.00    0.00  0.0000   
ZJAN1152        JANOW 0 0 118.47   87.93    3.90   -5.68   -1.71    0.00    0.00    5.70   -5.70 0.000    0.00    0.00  0.0000   
ZMIL1221      MILOSNA 0 0 228.00    0.00    0.00    0.00    0.00    0.00    0.00    0.00    0.00 0.000    0.00    0.00  0.0000   
ZMILP221      MILOSNA 0 0 220.00    0.00    0.00    0.00    0.00    0.00    0.00    0.00    0.00 0.000    0.00    0.00  0.0000   
ZMIL1411      MILOSNA 0 0 400.00    0.00    0.00    0.00    0.00    0.00    0.00    0.00    0.00 0.000    0.00    0.00  0.0000   
ZMIL1151      MILOSNA 0 0 119.00   86.23  -26.09    0.00    0.00    0.00    0.00    0.00    0.00 0.000    0.00    0.00  0.0000   
ZMIL1152      MILOSNA 0 0 119.00  129.90   -5.74    0.00    0.00    0.00    0.00    0.00    0.00 0.000    0.00    0.00  0.0000   
ZSDU1411       SDU411 0 0 410.00    0.00  104.65    0.00    0.00    0.00    0.00    0.00    0.00 0.000    0.00    0.00  0.0000   
ZSDU1151       SDU111 0 0 110.00  112.70   -9.46    0.00    0.00    0.00    0.00    0.00    0.00 0.000    0.00    0.00  0.0000   
ZSTN1411       STN411 0 0 400.00    0.00    0.00    0.00    0.00    0.00    0.00    0.00    0.00 0.000    0.00    0.00  0.0000   
ZKOR1411       KOR411 0 0 410.00    0.00    0.00    0.00    0.00    0.00    0.00    0.00    0.00 0.000    0.00    0.00  0.0000   
ZKOR1151       KOR111 0 0 111.42   20.60  -10.85  -12.42   13.89    0.00    0.00   13.90  -12.40 0.000    0.00    0.00  0.0000   
ZOLT1411       OLT411 0 0 410.00    0.00    0.00    0.00    0.00    0.00    0.00    0.00    0.00 0.000    0.00    0.00  0.0000   
ZOLT1221       OLT211 0 0 237.00    0.00    0.00    0.00    0.00    0.00    0.00    0.00    0.00 0.000    0.00    0.00  0.0000   
ZOLT1151       OLT111 0 0 110.00   56.06    0.02    0.00    0.00    0.00    0.00    0.00    0.00 0.000    0.00    0.00  0.0000   
ZMOR1221         MORY 0 0 220.00    0.00    0.00    0.00    0.00    0.00    0.00    0.00    0.00 0.000    0.00    0.00  0.0000   
ZPRG1221       PRG211 0 0 241.98    0.00    0.00    0.00    0.00    0.00    0.00    0.00    0.00 0.000    0.00    0.00  0.0000   
ZPRG1222       PRG221 0 0 241.94    0.00    0.00    0.00    0.00    0.00    0.00    0.00    0.00 0.000    0.00    0.00  0.0000   
ZMOR1151         MORY 0 0 116.00  141.85  -16.19    0.00    0.00    0.00    0.00    0.00    0.00 0.000    0.00    0.00  0.0000   
ZMOR1152         MORY 0 0 119.19  159.31  -33.41  -31.22   19.53    0.00    0.00   31.20  -31.20 0.000    0.00    0.00  0.0000   
ZMSK1411     MOSCISKA 0 0 400.00    0.00    0.00    0.00    0.00    0.00    0.00    0.00    0.00 0.000    0.00    0.00  0.0000   
ZMSK1151     MOSCISKA 0 0 116.00   47.24   39.40    0.00    0.00    0.00    0.00    0.00    0.00 0.000    0.00    0.00  0.0000   
ZMSK1152     MOSCISKA 0 0 110.00  145.07  -44.08    0.00    0.00    0.00    0.00    0.00    0.00 0.000    0.00    0.00  0.0000   
ZNAR1411        NAREW 0 0 410.00    0.00  158.12    0.00    0.00    0.00    0.00    0.00    0.00 0.000    0.00    0.00  0.0000   
ZNAR1151        NAREW 0 0 120.00  150.64  -16.99    0.00    0.00    0.00    0.00    0.00    0.00 0.000    0.00    0.00  0.0000   
ZOST1221    OSTROLEKA 0 0 237.16    0.00    0.00    0.00    0.00    0.00    0.00    0.00    0.00 0.000    0.00    0.00  0.0000   
ZOST1411       OST411 0 0 410.00    0.00    0.00    0.00    0.00    0.00    0.00    0.00    0.00 0.000    0.00    0.00  0.0000   
ZOST1151    OSTROLEKA 0 0 119.54  116.79   25.54    0.00    0.00    0.00    0.00    0.00    0.00 0.000    0.00    0.00  0.0000   
ZPAB1221    PABIANICE 0 0 228.00    0.00    0.00    0.00    0.00    0.00    0.00    0.00    0.00 0.000    0.00    0.00  0.0000   
ZPAB1151    PABIANICE 0 0 118.00   62.00  -14.80    0.00    0.00    0.00    0.00    0.00    0.00 0.000    0.00    0.00  0.0000   
ZPAB1152    PABIANICE 0 0 110.00   79.06    2.41    0.00    0.00    0.00    0.00    0.00    0.00 0.000    0.00    0.00  0.0000   
ZPDE1221   PODOLSZYCE 0 0 220.00    0.00    0.00    0.00    0.00    0.00    0.00    0.00    0.00 0.000    0.00    0.00  0.0000   
ZPDE1151   PODOLSZYCE 0 0 116.00   35.26    1.22  -10.63   -0.81    0.00    0.00   10.60  -10.60 0.000    0.00    0.00  0.0000   
ZPDE1152   PODOLSZYCE 0 0 118.00   64.32   -4.55    0.00    0.00    0.00    0.00    0.00    0.00 0.000    0.00    0.00  0.0000   
ZPIA1221    PIASECZNO 0 0 220.00    0.00    0.00    0.00    0.00    0.00    0.00    0.00    0.00 0.000    0.00    0.00  0.0000   
ZPIA1151    PIASECZNO 0 0 116.00   89.52  -14.64    0.00    0.00    0.00    0.00    0.00    0.00 0.000    0.00    0.00  0.0000   
ZPIO1221     PIOTRKOW 0 0 236.00    0.00    0.00    0.00    0.00    0.00    0.00    0.00    0.00 0.000    0.00    0.00  0.0000   
ZPIO1151     PIOTRKOW 0 0 110.00   61.95    6.23    0.00    0.00    0.00    0.00    0.00    0.00 0.000    0.00    0.00  0.0000   
ZPIO1152     PIOTRKOW 0 0 118.51   60.20    2.59   -6.67    6.69    0.00    0.00    6.70   -6.70 0.000    0.00    0.00  0.0000   
ZPLO1411        PLOCK 0 0 410.00    0.00    0.00    0.00    0.00    0.00    0.00    0.00    0.00 0.000    0.00    0.00  0.0000   
ZPLO1151        PLOCK 0 0 116.36   11.87   -0.40   -2.16  -19.53    0.00    0.00    2.20  -27.60 0.000    0.00    0.00  0.0000   
ZPLO1152        PLOCK 0 0 116.90   92.90   19.88  -12.74    4.91    0.00    0.00   12.70  -12.70 0.000    0.00    0.00  0.0000   
ZEPL1411       EPL411 0 0 404.58    0.00    0.00    0.00    0.00    0.00    0.00    0.00    0.00 0.000    0.00    0.00  0.0000   
ZROG1221     ROGOWIEC 0 0 233.65   29.09   15.21    0.00    0.00    0.00    0.00    0.00    0.00 0.000    0.00    0.00  0.0000   
ZROG1222     ROGOWIEC 0 0 234.71   19.55   14.43    0.00    0.00    0.00    0.00    0.00    0.00 0.000    0.00    0.00  0.0000   
ZROG1412     ROGOWIEC 0 0 405.19  172.50   25.22    0.00    0.00    0.00    0.00    0.00    0.00 0.000    0.00    0.00  0.0000   
ZROG1411     ROGOWIEC 0 3 406.74    0.00    0.00    0.00    0.00    0.00    0.00    0.00    0.00 0.000    0.00    0.00  0.0000   
ZBEE1411       BEE411 0 0 401.69    0.00    0.00    0.00    0.00    0.00    0.00    0.00    0.00 0.000    0.00    0.00  0.0000   
ZSOC1221    SOCHACZEW 0 0 220.00    0.00    0.00    0.00    0.00    0.00    0.00    0.00    0.00 0.000    0.00    0.00  0.0000   
ZSOC1151    SOCHACZEW 0 0 117.00  205.47  -18.91    0.00    0.00    0.00    0.00    0.00    0.00 0.000    0.00    0.00  0.0000   
ZTRE1411    TREBACZEW 0 0 400.00    0.00    0.00    0.00    0.00    0.00    0.00    0.00    0.00 0.000    0.00    0.00  0.0000   
ZTRE1151    TREBACZEW 0 0 120.00   77.68    4.87    0.00    0.00    0.00    0.00    0.00    0.00 0.000    0.00    0.00  0.0000   
ZTRE1152    TREBACZEW 0 0 120.00   47.44    1.40    0.00    0.00    0.00    0.00    0.00    0.00 0.000    0.00    0.00  0.0000   
ZWTO1221 WARSZAWA TOW 0 0 230.00    0.00    0.00    0.00    0.00    0.00    0.00    0.00    0.00 0.000    0.00    0.00  0.0000   
ZWTO1151 WARSZAWA TOW 0 0 110.00   41.00    2.50    0.00    0.00    0.00    0.00    0.00    0.00 0.000    0.00    0.00  0.0000   
ZWTO1152       WTO121 0 0 110.00   92.71  -28.29    0.00    0.00    0.00    0.00    0.00    0.00 0.000    0.00    0.00  0.0000   
ZZGI1221       ZGIERZ 0 0 220.00    0.00    0.00    0.00    0.00    0.00    0.00    0.00    0.00 0.000    0.00    0.00  0.0000   
ZZGI1151       ZGIERZ 0 0 117.00  102.26   -5.90    0.00    0.00    0.00    0.00    0.00    0.00 0.000    0.00    0.00  0.0000   
ZZGI1152       ZGIERZ 0 0 119.06   61.37    4.04  -13.48   -6.46    0.00    0.00   13.50  -13.50 0.000    0.00    0.00  0.0000   
ZEBE1151 EL BELCHATOW 0 0 119.00  -69.58    6.45    0.00    0.00    0.00    0.00    0.00    0.00 0.000    0.00    0.00  0.0000   
ZPRG1151       PRG111 0 0 118.95   98.90  -59.75    0.00    0.00    0.00    0.00    0.00    0.00 0.000    0.00    0.00  0.0000   
ZPRG1152       PRG121 0 0 118.68  113.13  -22.21    0.00    0.00    0.00    0.00    0.00    0.00 0.000    0.00    0.00  0.0000   
ZLMS1411       LMS411 0 0 400.00    0.00    0.00    0.00    0.00    0.00    0.00    0.00    0.00 0.000    0.00    0.00  0.0000   
ZABR2221   ABRAMOWICE 0 0 220.00    0.00    0.00    0.00    0.00    0.00    0.00    0.00    0.00 0.000    0.00    0.00  0.0000   
ZABR2151   ABRAMOWICE 0 0 119.00   90.26   -8.90    0.00    0.00    0.00    0.00    0.00    0.00 0.000    0.00    0.00  0.0000   
ZBGC2221   BOGUCHWALA 0 0 220.00    0.00    0.00    0.00    0.00    0.00    0.00    0.00    0.00 0.000    0.00    0.00  0.0000   
ZBGC2151   BOGUCHWALA 0 0 116.00   93.43   11.17    0.00    0.00    0.00    0.00    0.00    0.00 0.000    0.00    0.00  0.0000   
ZCHM2221     CHMIELOW 0 0 220.00    0.00    0.00    0.00    0.00    0.00    0.00    0.00    0.00 0.000    0.00    0.00  0.0000   
ZCHM2151     CHMIELOW 0 0 118.00   48.11   -6.01    0.00    0.00    0.00    0.00    0.00    0.00 0.000    0.00    0.00  0.0000   
ZCHS2221        CHELM 0 0 220.00    0.00    0.00    0.00    0.00    0.00    0.00    0.00    0.00 0.000    0.00    0.00  0.0000   
ZCHS2151        CHELM 0 0 117.00   78.73   -0.40    0.00    0.00    0.00    0.00    0.00    0.00 0.000    0.00    0.00  0.0000   
ZKIE2221       KIELCE 0 0 240.00    0.00    0.00    0.00    0.00    0.00    0.00    0.00    0.00 0.000    0.00    0.00  0.0000   
ZKIE2411       KIELCE 0 0 400.00    0.00    0.00    0.00    0.00    0.00    0.00    0.00    0.00 0.000    0.00    0.00  0.0000   
ZKOZ2221    KOZIENICE 0 0 238.13   15.64  -42.55    0.00    0.00    0.00    0.00    0.00    0.00 0.000    0.00    0.00  0.0000   
ZKOZ2411    KOZIENICE 0 0 405.13    0.00    0.00    0.00    0.00    0.00    0.00    0.00    0.00 0.000    0.00    0.00  0.0000   
ZKOZ2151    KOZIENICE 0 0 118.62  167.14    7.64    0.00    0.00    0.00    0.00    0.00    0.00 0.000    0.00    0.00  0.0000   
ZKPK2221 KIELCE PIASK 0 0 228.00    0.00    0.00    0.00    0.00    0.00    0.00    0.00    0.00 0.000    0.00    0.00  0.0000   
ZKPK2151 KIELCE PIASK 0 0 117.00   68.14   -1.83    0.00    0.00    0.00    0.00    0.00    0.00 0.000    0.00    0.00  0.0000   
ZKRI2411 KROSNO ISKRZ 0 0 400.00    0.00    0.00    0.00    0.00    0.00    0.00    0.00    0.00 0.000    0.00    0.00  0.0000   
ZKRI2151 KROSNO ISKRZ 0 0 115.00   58.11  -16.66    0.00    0.00    0.00    0.00    0.00    0.00 0.000    0.00    0.00  0.0000   
ZLSY2411       LUBLIN 0 0 400.00    0.00    0.00    0.00    0.00    0.00    0.00    0.00    0.00 0.000    0.00    0.00  0.0000   
ZLSY2151       LUBLIN 0 0 118.00  168.84   -9.87    0.00    0.00    0.00    0.00    0.00    0.00 0.000    0.00    0.00  0.0000   
ZMKR2221        MOKRE 0 0 220.00    0.00    0.00    0.00    0.00    0.00    0.00    0.00    0.00 0.000    0.00    0.00  0.0000   
ZMKR2151        MOKRE 0 0 124.10    5.20   -5.23   -9.25  -12.89    0.00    0.00    9.20  -12.90 0.000    0.00    0.00  0.0000   
ZOSC2411    OSTROWIEC 0 0 400.00    0.00    0.00    0.00    0.00    0.00    0.00    0.00    0.00 0.000    0.00    0.00  0.0000   
ZOSC2151    OSTROWIEC 0 0 117.00  172.16   -6.62    0.00    0.00    0.00    0.00    0.00    0.00 0.000    0.00    0.00  0.0000   
ZPEL2221     POLANIEC 0 0 233.86    0.00    0.00    0.00    0.00    0.00    0.00    0.00    0.00 0.000    0.00    0.00  0.0000   
ZPEL2411     POLANIEC 0 0 405.32    0.00    0.00    0.00    0.00    0.00    0.00    0.00    0.00 0.000    0.00    0.00  0.0000   
ZPEL2151     POLANIEC 0 0 119.04   56.29   -4.82    0.00    0.00    0.00    0.00    0.00    0.00 0.000    0.00    0.00  0.0000   
ZPUL2221       PULAWY 0 0 236.63  109.04   17.37    0.00    0.00    0.00    0.00    0.00    0.00 0.000    0.00    0.00  0.0000   
ZRAD2221    RADKOWICE 0 0 220.00    0.00    0.00    0.00    0.00    0.00    0.00    0.00    0.00 0.000    0.00    0.00  0.0000   
ZRAD2151    RADKOWICE 0 0 118.00   54.91   -1.83    0.00    0.00    0.00    0.00    0.00    0.00 0.000    0.00    0.00  0.0000   
ZROZ2221        ROZKI 0 0 220.00    0.00    0.00    0.00    0.00    0.00    0.00    0.00    0.00 0.000    0.00    0.00  0.0000   
ZROZ2151        ROZKI 0 0 117.00  160.38  -15.20    0.00    0.00    0.00    0.00    0.00    0.00 0.000    0.00    0.00  0.0000   
ZRZE2411      RZESZOW 0 0 413.00    0.00    0.00    0.00    0.00    0.00    0.00    0.00    0.00 0.000    0.00    0.00  0.0000   
ZRZE2701      RZESZOW 0 0 750.00    0.00    0.00    0.00    0.00    0.00    0.00    0.00    0.00 0.000    0.00    0.00  0.0000   
ZRZE2151      RZESZOW 0 0 118.00   77.06  -32.93    0.00    0.00    0.00    0.00    0.00    0.00 0.000    0.00    0.00  0.0000   
ZSTW2221 STALOWA WOLA 0 0 233.30    0.00    0.00    0.00    0.00    0.00    0.00    0.00    0.00 0.000    0.00    0.00  0.0000   
ZSTW2151 STALOWA WOLA 0 0 120.00  190.68   45.28    0.00    0.00    0.00    0.00    0.00    0.00 0.000    0.00    0.00  0.0000   
ZZAM2221       ZAMOSC 0 0 220.00    0.00    0.00    0.00    0.00    0.00    0.00    0.00    0.00 0.000    0.00    0.00  0.0000   
ZZAM2151       ZAMOSC 0 0 118.00   63.33    0.42    0.00    0.00    0.00    0.00    0.00    0.00 0.000    0.00    0.00  0.0000   
ZLEC2151       LEC112 0 0 120.02   18.52   -6.95    0.00    0.00    0.00    0.00    0.00    0.00 0.000    0.00    0.00  0.0000   
ZOSP2151       OSP112 0 0 110.00    0.00    0.00    0.00    0.00    0.00    0.00    0.00    0.00 0.000    0.00    0.00  0.0000   
ZANI3221      ANIOLOW 0 0 220.00    0.00    0.00    0.00    0.00    0.00    0.00    0.00    0.00 0.000    0.00    0.00  0.0000   
ZANI3151      ANIOLOW 0 0 118.20   87.76  -11.46  -21.37    4.14    0.00    0.00   21.40  -21.40 0.000    0.00    0.00  0.0000   
ZATA3221 AZOTY-TARNOW 0 0 220.00    0.00    0.00    0.00    0.00    0.00    0.00    0.00    0.00 0.000    0.00    0.00  0.0000   
ZATA3222 AZOTY-TARNOW 0 0 220.00    0.00    0.00    0.00    0.00    0.00    0.00    0.00    0.00 0.000    0.00    0.00  0.0000   
ZBIR3221       BIERUN 0 0 220.00    0.00    0.00    0.00    0.00    0.00    0.00    0.00    0.00 0.000    0.00    0.00  0.0000   
ZBIR3151       BIERUN 0 0 118.00    8.91  -62.26    0.00    0.00    0.00    0.00    0.00    0.00 0.000    0.00    0.00  0.0000   
ZBIR3152       BIERUN 0 0 118.00   25.77  -35.86    0.00    0.00    0.00    0.00    0.00    0.00 0.000    0.00    0.00  0.0000   
ZBLA3221   BLACHOWNIA 0 0 220.00    0.00    0.00    0.00    0.00    0.00    0.00    0.00    0.00 0.000    0.00    0.00  0.0000   
ZBLA3151   BLACHOWNIA 0 0 118.16   19.82    0.67   -3.92   -3.90    0.00    0.00    7.50   -3.90 0.000    0.00    0.00  0.0000   
ZBLA3152   BLACHOWNIA 0 0 117.79   25.01   -2.65    0.00    0.00    0.00    0.00    0.00    0.00 0.000    0.00    0.00  0.0000   
ZBUJ3221      BUJAKOW 0 0 220.00    0.00    0.00    0.00    0.00    0.00    0.00    0.00    0.00 0.000    0.00    0.00  0.0000   
ZXHB3221 T  HAL - BYC 0 0 220.00    0.00    0.00    0.00    0.00    0.00    0.00    0.00    0.00 0.000    0.00    0.00  0.0000   
ZBYC3221      BYCZYNA 0 0 233.33    0.00    0.00    0.00    0.00    0.00    0.00    0.00    0.00 0.000    0.00    0.00  0.0000   
ZBYC3411       BYC413 0 0 406.34    0.00    0.00    0.00    0.00    0.00    0.00    0.00    0.00 0.000    0.00    0.00  0.0000   
ZCZT3221     CZECZOTT 0 0 220.00    0.78   14.20    0.00    0.00    0.00    0.00    0.00    0.00 0.000    0.00    0.00  0.0000   
ZDBN3411      DOBRZEN 0 0 408.28    0.00    0.00    0.00    0.00    0.00    0.00    0.00    0.00 0.000    0.00    0.00  0.0000   
ZDBN3151      DOBRZEN 0 0 120.27   37.85    8.93    0.00    0.00    0.00    0.00    0.00    0.00 0.000    0.00    0.00  0.0000   
ZDBN3152      DOBRZEN 0 0 110.00   47.91   -7.14    0.00    0.00    0.00    0.00    0.00    0.00 0.000    0.00    0.00  0.0000   
ZSKA3411       SKA413 0 0 410.00    0.00    0.00    0.00    0.00    0.00    0.00    0.00    0.00 0.000    0.00    0.00  0.0000   
ZGRO3221   GROSZOWICE 0 0 220.00    0.00    0.00    0.00    0.00    0.00    0.00    0.00    0.00 0.000    0.00    0.00  0.0000   
ZGRO3151   GROSZOWICE 0 0 120.18   74.17   -2.27   -3.57    3.60    0.00    0.00    3.60   -3.60 0.000    0.00    0.00  0.0000   
ZGRO3152   GROSZOWICE 0 0 117.00  120.85  -17.03    0.00    0.00    0.00    0.00    0.00    0.00 0.000    0.00    0.00  0.0000   
ZHAL3221      HALEMBA 0 0 220.00    0.00    0.00    0.00    0.00    0.00    0.00    0.00    0.00 0.000    0.00    0.00  0.0000   
ZHAL3151      HALEMBA 0 0 116.00   -0.52  -74.64    0.00    0.00    0.00    0.00    0.00    0.00 0.000    0.00    0.00  0.0000   
ZHAL3152      HALEMBA 0 0 110.00   48.35  -31.71    0.00    0.00    0.00    0.00    0.00    0.00 0.000    0.00    0.00  0.0000   
ZHCZ3221 HUTA CZESTOC 0 0 239.00   67.76   30.13    0.00    0.00    0.00    0.00    0.00    0.00 0.000    0.00    0.00  0.0000   
ZJAM3221        JAMKI 0 0 220.00    0.00    0.00    0.00    0.00    0.00    0.00    0.00    0.00 0.000    0.00    0.00  0.0000   
ZJAM3151        JAMKI 0 0 119.66   14.10  -20.32   -4.18  -12.40    0.00    0.00    4.20  -12.40 0.000    0.00    0.00  0.0000   
ZJAM3152        JAMKI 0 0 110.00   32.72    1.19    0.00    0.00    0.00    0.00    0.00    0.00 0.000    0.00    0.00  0.0000   
ZJOA3221    JOACHIMOW 0 0 235.00    0.00    0.00    0.00    0.00    0.00    0.00    0.00    0.00 0.000    0.00    0.00  0.0000   
ZJOAP221    JOACHIMOW 0 0 220.00    0.00    0.00    0.00    0.00    0.00    0.00    0.00    0.00 0.000    0.00    0.00  0.0000   
ZJOAP222      JOA22PF 0 0 220.00    0.00    0.00    0.00    0.00    0.00    0.00    0.00    0.00 0.000    0.00    0.00  0.0000   
ZJOA3411    JOACHIMOW 0 0 400.00    0.00    0.00    0.00    0.00    0.00    0.00    0.00    0.00 0.000    0.00    0.00  0.0000   
ZKAT3221     KATOWICE 0 0 220.00    0.00    0.00    0.00    0.00    0.00    0.00    0.00    0.00 0.000    0.00    0.00  0.0000   
ZKAT3151     KATOWICE 0 0 119.00   80.45   25.69    0.00    0.00    0.00    0.00    0.00    0.00 0.000    0.00    0.00  0.0000   
ZKAT3152     KATOWICE 0 0 117.59   96.35   73.11   -5.71  -31.40    0.00    0.00    5.70  -31.40 0.000    0.00    0.00  0.0000   
ZKED3221   KEDZIERZYN 0 0 220.00    0.00    0.00    0.00    0.00    0.00    0.00    0.00    0.00 0.000    0.00    0.00  0.0000   
ZKED3151   KEDZIERZYN 0 0 117.65   25.11   -0.40    0.00    0.00    0.00    0.00    0.00    0.00 0.000    0.00    0.00  0.0000   
ZKHK3221  KOKSOCHEMIA 0 0 232.93    0.00   -0.00    0.00    0.00    0.00    0.00    0.00    0.00 0.000    0.00    0.00  0.0000   
ZKLA3221      KLIKOWA 0 0 232.00    0.00    0.00    0.00    0.00    0.00    0.00    0.00    0.00 0.000    0.00    0.00  0.0000   
ZKLA3151      KLIKOWA 0 0 110.00   23.89   -0.83    0.00    0.00    0.00    0.00    0.00    0.00 0.000    0.00    0.00  0.0000   
ZKLA3152      KLIKOWA 0 0 110.00   37.42   -9.19    0.00    0.00    0.00    0.00    0.00    0.00 0.000    0.00    0.00  0.0000   
ZKOM3221   KOMOROWICE 0 0 220.00    0.00    0.00    0.00    0.00    0.00    0.00    0.00    0.00 0.000    0.00    0.00  0.0000   
ZKOM3151   KOMOROWICE 0 0 120.00   94.43    5.09    0.00    0.00    0.00    0.00    0.00    0.00 0.000    0.00    0.00  0.0000   
ZKOM3152   KOMOROWICE 0 0 117.00   98.74  -14.01    0.00    0.00    0.00    0.00    0.00    0.00 0.000    0.00    0.00  0.0000   
ZKOP3221     KOPANINA 0 0 232.85    0.00    0.00    0.00    0.00    0.00    0.00    0.00    0.00 0.000    0.00    0.00  0.0000   
ZKOP3151     KOPANINA 0 0 117.46  137.43  101.85    0.00    0.00    0.00    0.00    0.00    0.00 0.000    0.00    0.00  0.0000   
ZKOP3152     KOPANINA 0 0 120.42   46.57   28.62    0.00    0.00    0.00    0.00    0.00    0.00 0.000    0.00    0.00  0.0000   
ZKOP3153       KOP133 0 0 119.00   82.85   18.88    0.00    0.00    0.00    0.00    0.00    0.00 0.000    0.00    0.00  0.0000   
ZLAG3221      LAGISZA 0 0 240.00    0.00    0.00    0.00    0.00    0.00    0.00    0.00    0.00 0.000    0.00    0.00  0.0000   
ZLAG3411      LAGISZA 0 0 408.39    4.86    3.79    0.00    0.00    0.00    0.00    0.00    0.00 0.000    0.00    0.00  0.0000   
ZLAG3151      LAGISZA 0 0 119.98   68.14   33.86   -8.08  -23.75    0.00    0.00    8.10  -29.60 0.000    0.00    0.00  0.0000   
ZLAG3152      LAGISZA 0 0 118.44   15.42   27.20   -2.89    1.79    0.00    0.00    2.90   -2.90 0.000    0.00    0.00  0.0000   
ZLOS3221      LOSNICE 0 0 220.00   18.82    3.49    0.00    0.00    0.00    0.00    0.00    0.00 0.000    0.00    0.00  0.0000   
ZLOS3151      LOSNICE 0 0 118.00   99.52  -12.39    0.00    0.00    0.00    0.00    0.00    0.00 0.000    0.00    0.00  0.0000   
ZLUA3221      LUBOCZA 0 0 220.00    0.00    0.00    0.00    0.00    0.00    0.00    0.00    0.00 0.000    0.00    0.00  0.0000   
ZLUA3151      LUBOCZA 0 0 110.00   22.96  -15.45    0.00    0.00    0.00    0.00    0.00    0.00 0.000    0.00    0.00  0.0000   
ZLUA3152      LUBOCZA 0 0 118.00   86.67    1.37    0.00    0.00    0.00    0.00    0.00    0.00 0.000    0.00    0.00  0.0000   
ZMOS3221  MOSZCZENICA 0 0 220.00    0.00    0.00    0.00    0.00    0.00    0.00    0.00    0.00 0.000    0.00    0.00  0.0000   
ZMOS3151  MOSZCZENICA 0 0 118.00   44.98   19.21  -30.16   13.26    0.00    0.00   30.60  -30.20 0.000    0.00    0.00  0.0000   
ZMOS3152  MOSZCZENICA 0 0 116.00   55.79   -9.70    0.00    0.00    0.00    0.00    0.00    0.00 0.000    0.00    0.00  0.0000   
ZPRB3221       POREBA 0 0 220.00    0.00    0.00    0.00    0.00    0.00    0.00    0.00    0.00 0.000    0.00    0.00  0.0000   
ZPRB3151       POREBA 0 0 117.00   65.25  -19.46    0.00    0.00    0.00    0.00    0.00    0.00 0.000    0.00    0.00  0.0000   
ZROK3411    ROKITNICA 0 0 400.00    0.00    0.00    0.00    0.00    0.00    0.00    0.00    0.00 0.000    0.00    0.00  0.0000   
ZROK3151    ROKITNICA 0 0 110.00   82.14  -10.99    0.00    0.00    0.00    0.00    0.00    0.00 0.000    0.00    0.00  0.0000   
ZROK3152    ROKITNICA 0 0 117.36   78.06  -16.77  -20.41    5.06    0.00    0.00   20.40  -20.40 0.000    0.00    0.00  0.0000   
ZSIE3221      SIERSZA 0 0 220.00    0.00    0.00    0.00    0.00    0.00    0.00    0.00    0.00 0.000    0.00    0.00  0.0000   
ZSIE3151      SIERSZA 0 0 116.71  157.49   72.24    0.00    0.00    0.00    0.00    0.00    0.00 0.000    0.00    0.00  0.0000   
ZSIE3152      SIERSZA 0 0 119.00   59.14    3.87    0.00    0.00    0.00    0.00    0.00    0.00 0.000    0.00    0.00  0.0000   
ZSKA3221      SKAWINA 0 0 234.62    0.00    0.00    0.00    0.00    0.00    0.00    0.00    0.00 0.000    0.00    0.00  0.0000   
ZSKA3151      SKAWINA 0 0 121.00   72.43  -18.68    0.00    0.00    0.00    0.00    0.00    0.00 0.000    0.00    0.00  0.0000   
ZSKA3152      SKAWINA 0 0 117.37   72.08  -18.29  -10.50    5.18    0.00    0.00   10.50  -10.50 0.000    0.00    0.00  0.0000   
ZSKA3153       SKA133 0 0 117.78  140.41   33.89    0.00    0.00    0.00    0.00    0.00    0.00 0.000    0.00    0.00  0.0000   
ZTAW3411       TARNOW 0 0 400.00    0.00  105.14    0.00    0.00    0.00    0.00    0.00    0.00 0.000    0.00    0.00  0.0000   
ZTAW3151       TARNOW 0 0 110.00  190.31   29.37    0.00    0.00    0.00    0.00    0.00    0.00 0.000    0.00    0.00  0.0000   
ZTCN3411     TUCZNAWA 0 0 400.00    0.00    0.00    0.00    0.00    0.00    0.00    0.00    0.00 0.000    0.00    0.00  0.0000   
ZTCN3151     TUCZNAWA 0 0 119.59   76.10  -43.33   -2.16   -6.50    0.00    0.00    2.20   -6.50 0.000    0.00    0.00  0.0000   
ZTCN3152       TCN123 0 0 119.51  120.75    5.19    0.00    0.00    0.00    0.00    0.00    0.00 0.000    0.00    0.00  0.0000   
ZWAN3221        WANDA 0 0 220.00    0.00    0.00    0.00    0.00    0.00    0.00    0.00    0.00 0.000    0.00    0.00  0.0000   
ZWAN3151        WANDA 0 0 117.57    0.13   -7.10  -43.00   13.34    0.00    0.00   43.00  -43.00 0.000    0.00    0.00  0.0000   
ZWAN3152        WANDA 0 0 117.49   80.79  -23.13  -32.61   10.37    0.00    0.00   32.60  -32.60 0.000    0.00    0.00  0.0000   
ZWIE3221    WIELOPOLE 0 0 234.05    2.17   -4.38    0.00    0.00    0.00    0.00    0.00    0.00 0.000    0.00    0.00  0.0000   
ZWIE3411    WIELOPOLE 0 0 409.18    0.00    0.00    0.00    0.00    0.00    0.00    0.00    0.00 0.000    0.00    0.00  0.0000   
ZWIE3151    WIELOPOLE 0 0 117.94   76.20    6.39  -24.65    6.45    0.00    0.00   24.70  -24.70 0.000    0.00    0.00  0.0000   
ZWIE3152    WIELOPOLE 0 0 119.79   47.95    9.62  -22.80  -52.04    0.00    0.00   22.80 -137.50 0.000    0.00    0.00  0.0000   
ZWIE3153    WIELOPOLE 0 0 110.00   46.82   22.10    0.00    0.00    0.00    0.00    0.00    0.00 0.000    0.00    0.00  0.0000   
ZWRZ3221     WRZOSOWA 0 0 220.00    0.00    0.00    0.00    0.00    0.00    0.00    0.00    0.00 0.000    0.00    0.00  0.0000   
ZWRZ3151     WRZOSOWA 0 0 118.00   70.06   12.56    0.00    0.00    0.00    0.00    0.00    0.00 0.000    0.00    0.00  0.0000   
ZWRZ3152     WRZOSOWA 0 0 118.00   55.45    7.95    0.00    0.00    0.00    0.00    0.00    0.00 0.000    0.00    0.00  0.0000   
ZXJL3221 T  JOA - LAG 0 0 220.00    0.00    0.00    0.00    0.00    0.00    0.00    0.00    0.00 0.000    0.00    0.00  0.0000   
ZZAP3221  PORABKA-ZAR 0 0 220.00    0.00    0.00    0.00    0.00    0.00    0.00    0.00    0.00 0.000    0.00    0.00  0.0000   
ZZAP3222  PORABKA-ZAR 0 0 220.00    0.00    0.00    0.00    0.00    0.00    0.00    0.00    0.00 0.000    0.00    0.00  0.0000   
ZMSW3151          MSW 0 0 117.40   69.35   30.96  -16.95   10.94    0.00    0.00   17.00  -17.00 0.000    0.00    0.00  0.0000   
ZADA4221       ADAMOW 0 0 238.00    0.00    0.00    0.00    0.00    0.00    0.00    0.00    0.00 0.000    0.00    0.00  0.0000   
ZADA4151       ADAMOW 0 0 110.00  115.11   33.62    0.00    0.00    0.00    0.00    0.00    0.00 0.000    0.00    0.00  0.0000   
ZBOG4221     BOGUSZOW 0 0 220.00    0.00    0.00    0.00    0.00    0.00    0.00    0.00    0.00 0.000    0.00    0.00  0.0000   
ZBOG4151     BOGUSZOW 0 0 116.87   86.92   31.44  -28.73   -8.84    0.00    0.00   28.70  -28.70 0.000    0.00    0.00  0.0000   
ZBOG4152     BOGUSZOW 0 0 118.23  106.40    3.42  -17.15   -7.94    0.00    0.00   17.20  -17.20 0.000    0.00    0.00  0.0000   
ZCPC4221     CIEPLICE 0 0 220.00    0.00    0.00    0.00    0.00    0.00    0.00    0.00    0.00 0.000    0.00    0.00  0.0000   
ZCPC4151     CIEPLICE 0 0 120.38   73.74   -9.30   -9.50   -3.56    0.00    0.00    9.50   -9.50 0.000    0.00    0.00  0.0000   
ZCRN4411       CZARNA 0 0 400.00    0.00    0.00    0.00    0.00    0.00    0.00    0.00    0.00 0.000    0.00    0.00  0.0000   
ZCRN4151       CZARNA 0 0 118.86   94.86   45.71  -35.75  -19.18    0.00    0.00   35.80  -35.80 0.000    0.00    0.00  0.0000   
ZCRN4152       CZARNA 0 0 119.00  117.15   58.04    0.00    0.00    0.00    0.00    0.00    0.00 0.000    0.00    0.00  0.0000   
ZCZE4221    CZERWONAK 0 0 220.00    0.00    0.00    0.00    0.00    0.00    0.00    0.00    0.00 0.000    0.00    0.00  0.0000   
ZCZE4151    CZERWONAK 0 0 117.00   54.99  -30.70    0.00    0.00    0.00    0.00    0.00    0.00 0.000    0.00    0.00  0.0000   
ZCZE4152    CZERWONAK 0 0 110.00  128.33  -17.18    0.00    0.00    0.00    0.00    0.00    0.00 0.000    0.00    0.00  0.0000   
ZMIK4412     MIKULOWA 0 0 400.00    0.00    0.00    0.00    0.00    0.00    0.00    0.00    0.00 0.000    0.00    0.00  0.0000   
ZMIK4413       MIK434 0 0 400.00    0.00    0.00    0.00    0.00    0.00    0.00    0.00    0.00 0.000    0.00    0.00  0.0000   
ZGLN4221       GLINKI 0 0 236.00    0.00    0.00    0.00    0.00    0.00    0.00    0.00    0.00 0.000    0.00    0.00  0.0000   
ZMIK4414       MIK444 0 0 400.00    0.00    0.00    0.00    0.00    0.00    0.00    0.00    0.00 0.000    0.00    0.00  0.0000   
ZGLN4151       GLINKI 0 0 118.00   25.10  -23.63    0.00    0.00    0.00    0.00    0.00    0.00 0.000    0.00    0.00  0.0000   
ZMIK4415       MIK454 0 0 400.00    0.00    0.00    0.00    0.00    0.00    0.00    0.00    0.00 0.000    0.00    0.00  0.0000   
ZGOR4221       GORZOW 0 0 220.00    0.00    0.00    0.00    0.00    0.00    0.00    0.00    0.00 0.000    0.00    0.00  0.0000   
ZGOR4151       GORZOW 0 0 120.06  156.17  -26.68  -46.64   14.78    0.00    0.00   46.60  -46.60 0.000    0.00    0.00  0.0000   
ZKON4221        KONIN 0 0 237.41    1.46   21.00    0.00    0.00    0.00    0.00    0.00    0.00 0.000    0.00    0.00  0.0000   
ZKON4151        KONIN 0 0 119.00    6.50    1.12    0.00    0.00    0.00    0.00    0.00    0.00 0.000    0.00    0.00  0.0000   
ZKON4152        KONIN 0 0 116.06  171.70   21.60    0.00    0.00    0.00    0.00    0.00    0.00 0.000    0.00    0.00  0.0000   
ZKRA4221      KRAJNIK 0 0 240.22   11.82  -36.88    0.00    0.00    0.00    0.00    0.00    0.00 0.000    0.00    0.00  0.0000   
ZKRA4411      KRAJNIK 0 0 414.33    0.00    0.00    0.00    0.00    0.00    0.00    0.00    0.00 0.000    0.00    0.00  0.0000   
ZLES4221       LESZNO 0 0 220.00    0.00    0.00    0.00    0.00    0.00    0.00    0.00    0.00 0.000    0.00    0.00  0.0000   
ZLES4151       LESZNO 0 0 114.00  122.24   12.54    0.00    0.00    0.00    0.00    0.00    0.00 0.000    0.00    0.00  0.0000   
ZLSN4221      LESNIOW 0 0 230.00    0.00    0.00    0.00    0.00    0.00    0.00    0.00    0.00 0.000    0.00    0.00  0.0000   
ZLSN4151      LESNIOW 0 0 110.00  202.53   10.83    0.00    0.00    0.00    0.00    0.00    0.00 0.000    0.00    0.00  0.0000   
ZMIK4221     MIKULOWA 0 0 237.47    0.00    0.00    0.00    0.00    0.00    0.00    0.00    0.00 0.000    0.00    0.00  0.0000   
ZMIKP221     MIKULOWA 0 0 220.00    0.00    0.00    0.00    0.00    0.00    0.00    0.00    0.00 0.000    0.00    0.00  0.0000   
ZMIKP222     MIKULOWA 0 0 220.00    0.00    0.00    0.00    0.00    0.00    0.00    0.00    0.00 0.000    0.00    0.00  0.0000   
ZMIK4411     MIKULOWA 0 0 400.00    0.00    0.00    0.00    0.00    0.00    0.00    0.00    0.00 0.000    0.00    0.00  0.0000   
ZMIK4151     MIKULOWA 0 0 119.00  119.28  -14.61    0.00    0.00    0.00    0.00    0.00    0.00 0.000    0.00    0.00  0.0000   
ZMIK4152     MIKULOWA 0 0 119.00   85.05  -20.58    0.00    0.00    0.00    0.00    0.00    0.00 0.000    0.00    0.00  0.0000   
ZMON4221    MORZYCZYN 0 0 240.00    0.00    0.00    0.00    0.00    0.00    0.00    0.00    0.00 0.000    0.00    0.00  0.0000   
ZMON4411    MORZYCZYN 0 0 400.00    0.00    0.00    0.00    0.00    0.00    0.00    0.00    0.00 0.000    0.00    0.00  0.0000   
ZMON4151    MORZYCZYN 0 0 116.88   63.80  -11.81  -10.16   -0.17    0.00    0.00   10.20  -10.20 0.000    0.00    0.00  0.0000   
ZMON4152    MORZYCZYN 0 0 117.19   51.86  -12.97   -7.39    6.53    0.00    0.00    7.40   -7.40 0.000    0.00    0.00  0.0000   
ZOSR4411 OSTROW WLKP. 0 0 410.00    0.00    0.00    0.00    0.00    0.00    0.00    0.00    0.00 0.000    0.00    0.00  0.0000   
ZOSR4151 OSTROW WLKP. 0 0 116.00  108.73   -1.57    0.00    0.00    0.00    0.00    0.00    0.00 0.000    0.00    0.00  0.0000   
ZPAS4411 PASIKUROWICE 0 0 400.00    0.00    0.00    0.00    0.00    0.00    0.00    0.00    0.00 0.000    0.00    0.00  0.0000   
ZPAS4151 PASIKUROWICE 0 0 118.00  181.93   58.80    0.00    0.00    0.00    0.00    0.00    0.00 0.000    0.00    0.00  0.0000   
ZPAS4152 PASIKUROWICE 0 0 118.00  170.47  115.77    0.00    0.00    0.00    0.00    0.00    0.00 0.000    0.00    0.00  0.0000   
ZPAT4411       PATNOW 0 0 407.66    0.00    0.00    0.00    0.00    0.00    0.00    0.00    0.00 0.000    0.00    0.00  0.0000   
ZPAT4221       PATNOW 0 0 237.69    0.00    0.00    0.00    0.00    0.00    0.00    0.00    0.00 0.000    0.00    0.00  0.0000   
ZPAT4151       PATNOW 0 0 116.27  193.45  -35.72  -76.17   39.14    0.00    0.00   76.20  -76.20 0.000    0.00    0.00  0.0000   
ZPKW4221 PILA KRZEWIN 0 0 220.00    0.00    0.00    0.00    0.00    0.00    0.00    0.00    0.00 0.000    0.00    0.00  0.0000   
ZPKW4222 PILA KRZEWIN 0 0 220.00    0.00    0.00    0.00    0.00    0.00    0.00    0.00    0.00 0.000    0.00    0.00  0.0000   
ZPKW4151 PILA KRZEWIN 0 0 114.00   71.24    3.77    0.00    0.00    0.00    0.00    0.00    0.00 0.000    0.00    0.00  0.0000   
ZPKW4152 PILA KRZEWIN 0 0 114.00  129.37   38.10    0.00    0.00    0.00    0.00    0.00    0.00 0.000    0.00    0.00  0.0000   
ZPLC4221       POLICE 0 0 220.00    0.00    0.00    0.00    0.00    0.00    0.00    0.00    0.00 0.000    0.00    0.00  0.0000   
ZPLC4151       POLICE 0 0 116.00    0.01   -0.36    0.00    0.00    0.00    0.00    0.00    0.00 0.000    0.00    0.00  0.0000   
ZPLC4152       POLICE 0 0 114.00    0.00   -0.10    0.00    0.00    0.00    0.00    0.00    0.00 0.000    0.00    0.00  0.0000   
ZPLE4221     PLEWISKA 0 0 234.00    0.00    0.00    0.00    0.00    0.00    0.00    0.00    0.00 0.000    0.00    0.00  0.0000   
ZPLE4411     PLEWISKA 0 0 400.00    0.00    0.00    0.00    0.00    0.00    0.00    0.00    0.00 0.000    0.00    0.00  0.0000   
ZPLE4151     PLEWISKA 0 0 117.00   68.68   -2.95    0.00    0.00    0.00    0.00    0.00    0.00 0.000    0.00    0.00  0.0000   
ZPLE4152     PLEWISKA 0 0 117.00   70.02    1.11    0.00    0.00    0.00    0.00    0.00    0.00 0.000    0.00    0.00  0.0000   
ZPLE4153     PLEWISKA 0 0 117.00   59.16  -16.62    0.00    0.00    0.00    0.00    0.00    0.00 0.000    0.00    0.00  0.0000   
ZKRM4411       KRM414 0 0 400.00    0.00    0.00    0.00    0.00    0.00    0.00    0.00    0.00 0.000    0.00    0.00  0.0000   
ZKRM4151       KRM114 0 0 119.00    0.01   -0.74    0.00    0.00    0.00    0.00    0.00    0.00 0.000    0.00    0.00  0.0000   
ZPOL4411       POL414 0 0 410.00    0.00    0.00    0.00    0.00    0.00    0.00    0.00    0.00 0.000    0.00    0.00  0.0000   
ZPOL4221    POLKOWICE 0 0 234.00    0.00    0.00    0.00    0.00    0.00    0.00    0.00    0.00 0.000    0.00    0.00  0.0000   
ZPOL4151    POLKOWICE 0 0 120.47   48.65   -9.64   -4.80  -16.70    0.00    0.00    4.80  -16.70 0.000    0.00    0.00  0.0000   
ZPOL4152    POLKOWICE 0 0 114.00   71.76  -57.99    0.00    0.00    0.00    0.00    0.00    0.00 0.000    0.00    0.00  0.0000   
ZPOL4153       POL134 0 0 120.31    3.33  -11.98   -4.43  -12.96    0.00    0.00    4.40  -13.10 0.000    0.00    0.00  0.0000   
ZPPD4221  POZNAN PLD. 0 0 220.00    0.00    0.00    0.00    0.00    0.00    0.00    0.00    0.00 0.000    0.00    0.00  0.0000   
ZPPD4151  POZNAN PLD. 0 0 117.00   45.75   -2.15    0.00    0.00    0.00    0.00    0.00    0.00 0.000    0.00    0.00  0.0000   
ZSWI4411  SWIEBODZICE 0 0 410.00    0.00    0.00    0.00    0.00    0.00    0.00    0.00    0.00 0.000    0.00    0.00  0.0000   
ZSWI4221  SWIEBODZICE 0 0 240.00    0.00    0.00    0.00    0.00    0.00    0.00    0.00    0.00 0.000    0.00    0.00  0.0000   
ZSWI4151  SWIEBODZICE 0 0 118.00  117.53  -21.61    0.00    0.00    0.00    0.00    0.00    0.00 0.000    0.00    0.00  0.0000   
ZZBK4221    ZABKOWICE 0 0 220.00    0.00    0.00    0.00    0.00    0.00    0.00    0.00    0.00 0.000    0.00    0.00  0.0000   
ZZBK4151    ZABKOWICE 0 0 117.00    0.00    0.01    0.00    0.00    0.00    0.00    0.00    0.00 0.000    0.00    0.00  0.0000   
ZZUK4221     ZUKOWICE 0 0 238.00    0.00    0.00    0.00    0.00    0.00    0.00    0.00    0.00 0.000    0.00    0.00  0.0000   
ZZUK4151     ZUKOWICE 0 0 110.00  274.15   85.17    0.00    0.00    0.00    0.00    0.00    0.00 0.000    0.00    0.00  0.0000   
ZDOD4221       DOD214 0 0 220.00    0.00    0.00    0.00    0.00    0.00    0.00    0.00    0.00 0.000    0.00    0.00  0.0000   
ZDOD4151   Dolna Odra 0 0 117.73   26.70   -2.13    0.00    0.00    0.00    0.00    0.00    0.00 0.000    0.00    0.00  0.0000   
ZTUE4151        TUROW 0 0 117.29   18.48    8.63    0.00    0.00    0.00    0.00    0.00    0.00 0.000    0.00    0.00  0.0000   
ZZGC4221 ZIELONA GORA 0 0 235.27    0.00    0.00    0.00    0.00    0.00    0.00    0.00    0.00 0.000    0.00    0.00  0.0000   
ZWRC4411      WROCLAW 0 0 400.00    0.00    0.00    0.00    0.00    0.00    0.00    0.00    0.00 0.000    0.00    0.00  0.0000   
ZWRC4151      WROCLAW 0 0 118.00   96.12 -184.34    0.00    0.00    0.00    0.00    0.00    0.00 0.000    0.00    0.00  0.0000   
ZWRC4152      WROCLAW 0 0 110.00  170.83 -137.39    0.00    0.00    0.00    0.00    0.00    0.00 0.000    0.00    0.00  0.0000   
ZREC4221       REC214 0 0 238.00    0.00    0.00    0.00    0.00    0.00    0.00    0.00    0.00 0.000    0.00    0.00  0.0000   
ZREC4151       REC114 0 0 114.26  181.66   17.90  -51.56   14.65    0.00    0.00   51.60  -51.60 0.000    0.00    0.00  0.0000   
ZNCR4221       NCR214 0 0 220.00    0.00    0.00    0.00    0.00    0.00    0.00    0.00    0.00 0.000    0.00    0.00  0.0000   
ZNCR4151       NCR114 0 0 123.16   49.34    1.03  -47.86   33.02    0.00    0.00   47.90  -47.90 0.000    0.00    0.00  0.0000   
ZBYD5221 BYDGOSZCZ ZA 0 0 233.00    0.00    0.00    0.00    0.00    0.00    0.00    0.00    0.00 0.000    0.00    0.00  0.0000   
ZBYD5151 BYDGOSZCZ ZA 0 0 110.00  111.59   -1.58    0.00    0.00    0.00    0.00    0.00    0.00 0.000    0.00    0.00  0.0000   
ZDUN5221       DUNOWO 0 0 220.00    0.00    0.00    0.00    0.00    0.00    0.00    0.00    0.00 0.000    0.00    0.00  0.0000   
ZDUN5411       DUNOWO 0 0 410.00    0.00    0.00    0.00    0.00    0.00    0.00    0.00    0.00 0.000    0.00    0.00  0.0000   
ZDUN5151       DUNOWO 0 0 119.00  181.39   34.09    0.00    0.00    0.00    0.00    0.00    0.00 0.000    0.00    0.00  0.0000   
ZDAW5411      DARLOWO 0 0 400.00    0.00    0.00    0.00    0.00    0.00    0.00    0.00    0.00 0.000    0.00    0.00  0.0000   
ZDAW5151      DARLOWO 0 0 118.68   52.72  -31.80  -46.28   39.92    0.00    0.00   46.30  -46.30 0.000    0.00    0.00  0.0000   
ZGBL5411 GDANSK-BLONI 0 0 400.00    0.00    0.00    0.00    0.00    0.00    0.00    0.00    0.00 0.000    0.00    0.00  0.0000   
ZGBL5151 GDANSK-BLONI 0 0 120.00  143.76   -8.94    0.00    0.00    0.00    0.00    0.00    0.00 0.000    0.00    0.00  0.0000   
ZGBL5152 GDANSK-BLONI 0 0 120.00  150.84   17.28    0.00    0.00    0.00    0.00    0.00    0.00 0.000    0.00    0.00  0.0000   
ZZDK5221       ZDK215 0 0 232.00    0.00    0.00    0.00    0.00    0.00    0.00    0.00    0.00 0.000    0.00    0.00  0.0000   
ZGDP5411       GDP415 0 0 400.00    0.00    0.00    0.00    0.00    0.00    0.00    0.00    0.00 0.000    0.00    0.00  0.0000   
ZGDA5221       GDANSK 0 0 240.00    0.00    0.00    0.00    0.00    0.00    0.00    0.00    0.00 0.000    0.00    0.00  0.0000   
ZGDA5411       GDANSK 0 0 400.00    0.00    0.00    0.00    0.00    0.00    0.00    0.00    0.00 0.000    0.00    0.00  0.0000   
ZGDA5151       GDANSK 0 0 110.00  115.28  -20.00    0.00    0.00    0.00    0.00    0.00    0.00 0.000    0.00    0.00  0.0000   
ZGDA5152       GDANSK 0 0 110.00  118.01  -23.44    0.00    0.00    0.00    0.00    0.00    0.00 0.000    0.00    0.00  0.0000   
ZGRU5221    GRUDZIADZ 0 0 220.00    0.00    0.00    0.00    0.00    0.00    0.00    0.00    0.00 0.000    0.00    0.00  0.0000   
ZGRU5411    GRUDZIADZ 0 0 410.00    0.00    0.00    0.00    0.00    0.00    0.00    0.00    0.00 0.000    0.00    0.00  0.0000   
ZGRU5151    GRUDZIADZ 0 0 119.00  324.32   30.86    0.00    0.00    0.00    0.00    0.00    0.00 0.000    0.00    0.00  0.0000   
ZPLP5151       PLP115 0 0 110.00  127.55   23.81    0.00    0.00    0.00    0.00    0.00    0.00 0.000    0.00    0.00  0.0000   
ZJAS5411       JAS415 0 0 400.00    0.00    0.00    0.00    0.00    0.00    0.00    0.00    0.00 0.000    0.00    0.00  0.0000   
ZJAS5221     JASINIEC 0 0 220.00    0.00    0.00    0.00    0.00    0.00    0.00    0.00    0.00 0.000    0.00    0.00  0.0000   
ZJAS5151     JASINIEC 0 0 121.00  153.73   34.53    0.00    0.00    0.00    0.00    0.00    0.00 0.000    0.00    0.00  0.0000   
ZOLM5411 OLSZTYN-MATK 0 0 400.00    0.00  155.80    0.00    0.00    0.00    0.00    0.00    0.00 0.000    0.00    0.00  0.0000   
ZOLM5221 OLSZTYN MATK 0 0 240.00    0.00    0.00    0.00    0.00    0.00    0.00    0.00    0.00 0.000    0.00    0.00  0.0000   
ZOLM5151 OLSZTYN-MATK 0 0 110.00  121.42   -7.01    0.00    0.00    0.00    0.00    0.00    0.00 0.000    0.00    0.00  0.0000   
ZOLS5221      OLSZTYN 0 0 220.00    0.00    0.00    0.00    0.00    0.00    0.00    0.00    0.00 0.000    0.00    0.00  0.0000   
ZOLS5151      OLSZTYN 0 0 120.00  124.34  -10.74    0.00    0.00    0.00    0.00    0.00    0.00 0.000    0.00    0.00  0.0000   
ZSLK5411       SLUPSK 0 0 410.00    0.00    0.00    0.00    0.00    0.00    0.00    0.00    0.00 0.000    0.00    0.00  0.0000   
ZSLK5151       SLUPSK 0 0 120.00  110.55   20.52    0.00    0.00    0.00    0.00    0.00    0.00 0.000    0.00    0.00  0.0000   
ZSLKC-1D    SLUPSK DC 0 0 403.70    0.00 -177.67    0.00    0.00    0.00    0.00    0.00    0.00 0.000    0.00    0.00  0.0000   
ZSLO5151       SLO115 0 0 120.87   30.64  -50.88  -25.83   43.49    0.00    0.00   43.50  -25.80 0.000    0.00    0.00  0.0000   
ZTEL5221  TORUN ELANA 0 0 220.00    0.00    0.00    0.00    0.00    0.00    0.00    0.00    0.00 0.000    0.00    0.00  0.0000   
ZTEL5151  TORUN ELANA 0 0 113.84  154.36   -9.17  -16.80   -1.05    0.00    0.00   16.80  -16.80 0.000    0.00    0.00  0.0000   
ZWLC5221       WLC215 0 0 230.35   51.63   69.49    0.00    0.00    0.00    0.00    0.00    0.00 0.000    0.00    0.00  0.0000   
ZWLC5151       WLC115 0 0 116.00  -51.33  -52.85    0.00    0.00    0.00    0.00    0.00    0.00 0.000    0.00    0.00  0.0000   
ZPLP5411       PLP415 0 0 410.00    0.00    0.00    0.00    0.00    0.00    0.00    0.00    0.00 0.000    0.00    0.00  0.0000   
ZWLA5221 WLOCLAWEK AZ 0 0 220.00    0.00    0.00    0.00    0.00    0.00    0.00    0.00    0.00 0.000    0.00    0.00  0.0000   
ZWLA5151 WLOCLAWEK AZ 0 0 115.00  104.91   -2.67    0.00    0.00    0.00    0.00    0.00    0.00 0.000    0.00    0.00  0.0000   
ZZRC5411    ZARNOWIEC 0 0 406.76    0.00    0.00    0.00    0.00    0.00    0.00    0.00    0.00 0.000    0.00    0.00  0.0000   
ZZRC5151    ZARNOWIEC 0 0 119.00  119.46  -16.20    0.00    0.00    0.00    0.00    0.00    0.00 0.000    0.00    0.00  0.0000   
ZZRO5151       ZRO115 0 0 117.94   15.79   27.59  -12.50   -3.82    0.00    0.00   12.50  -12.50 0.000    0.00    0.00  0.0000   
ZZYD5221       ZYDOWO 0 0 232.00    0.00    0.00    0.00    0.00    0.00    0.00    0.00    0.00 0.000    0.00    0.00  0.0000   
ZZDK5151       ZDK115 0 0 110.00    0.10   -0.87    0.00    0.00    0.00    0.00    0.00    0.00 0.000    0.00    0.00  0.0000   
ZZDK5411       ZDK415 0 0 410.00    0.00    0.00    0.00    0.00    0.00    0.00    0.00    0.00 0.000    0.00    0.00  0.0000   
ZZYD5151       ZYDOWO 0 0 114.07  124.80   -2.61    0.00    0.00    0.00    0.00    0.00    0.00 0.000    0.00    0.00  0.0000   
ZZAW5151       ZAW115 0 0 116.00   -0.01   -0.18    0.00    0.00    0.00    0.00    0.00    0.00 0.000    0.00    0.00  0.0000   
ZZAW5221       ZAW215 0 0 220.00    0.00    0.00    0.00    0.00    0.00    0.00    0.00    0.00 0.000    0.00    0.00  0.0000   
ZAW21P2       ZAW21PF 0 0 220.00    0.00    0.00    0.00    0.00    0.00    0.00    0.00    0.00 0.000    0.00    0.00  0.0000   
ZPELXX2X     PELXXX01 0 0 233.86    0.00    0.00    0.00    0.00    0.00    0.00    0.00    0.00 0.000    0.00    0.00  0.0000   
ZGRUXX2X     GRUXXX03 0 0 220.00    0.00    0.00    0.00    0.00    0.00    0.00    0.00    0.00 0.000    0.00    0.00  0.0000   
ZDUN5222       DUN225 0 0 220.00    0.00    0.00    0.00    0.00    0.00    0.00    0.00    0.00 0.000    0.00    0.00  0.0000   
ZBUJ3222      BUJAKOW 0 0 220.00    0.00    0.00    0.00    0.00    0.00    0.00    0.00    0.00 0.000    0.00    0.00  0.0000   
ZBYC3222      BYCZYNA 0 0 233.33    6.90    8.68    0.00    0.00    0.00    0.00    0.00    0.00 0.000    0.00    0.00  0.0000   
ZDBN3412      DOBRZEN 0 0 408.28    0.00    0.00    0.00    0.00    0.00    0.00    0.00    0.00 0.000    0.00    0.00  0.0000   
ZDUN5412       DUNOWO 0 0 410.00    0.00    0.00    0.00    0.00    0.00    0.00    0.00    0.00 0.000    0.00    0.00  0.0000   
ZKRI2412 KROSNO ISKRZ 0 0 400.00    0.00    0.00    0.00    0.00    0.00    0.00    0.00    0.00 0.000    0.00    0.00  0.0000   
ZMIK4222     MIKULOWA 0 0 237.47    0.00    0.00    0.00    0.00    0.00    0.00    0.00    0.00 0.000    0.00    0.00  0.0000   
ZMIK4416       MIK464 0 0 400.00    0.00    0.00    0.00    0.00    0.00    0.00    0.00    0.00 0.000    0.00    0.00  0.0000   
ZMON4412    MORZYCZYN 0 0 400.00    0.00    0.00    0.00    0.00    0.00    0.00    0.00    0.00 0.000    0.00    0.00  0.0000   
ZMON4222    MORZYCZYN 0 0 240.00    0.00    0.00    0.00    0.00    0.00    0.00    0.00    0.00 0.000    0.00    0.00  0.0000   
ZSWI4222  SWIEBODZICE 0 0 240.00    0.00    0.00    0.00    0.00    0.00    0.00    0.00    0.00 0.000    0.00    0.00  0.0000   
ZWIE3222    WIELOPOLE 0 0 234.05    1.11    6.24    0.00    0.00    0.00    0.00    0.00    0.00 0.000    0.00    0.00  0.0000   
ZWIE3412    WIELOPOLE 0 0 409.18    0.00    0.00    0.00    0.00    0.00    0.00    0.00    0.00 0.000    0.00    0.00  0.0000   
ZZYD5222       ZYDOWO 0 0 232.00    0.00    0.00    0.00    0.00    0.00    0.00    0.00    0.00 0.000    0.00    0.00  0.0000   
ZPAB1222    PABIANICE 0 0 228.00    0.00    0.00    0.00    0.00    0.00    0.00    0.00    0.00 0.000    0.00    0.00  0.0000   
ZPLE4222     PLEWISKA 0 0 234.00    0.00    0.00    0.00    0.00    0.00    0.00    0.00    0.00 0.000    0.00    0.00  0.0000   
ZPLE4412     PLEWISKA 0 0 400.00    0.00    0.00    0.00    0.00    0.00    0.00    0.00    0.00 0.000    0.00    0.00  0.0000   
ZPEL2222     POLANIEC 0 0 233.86    0.00    0.00    0.00    0.00    0.00    0.00    0.00    0.00 0.000    0.00    0.00  0.0000   
ZPEL2412     POLANIEC 0 0 405.32    0.00    0.00    0.00    0.00    0.00    0.00    0.00    0.00 0.000    0.00    0.00  0.0000   
ZOLT1222       OLT221 0 0 237.00    0.00    0.00    0.00    0.00    0.00    0.00    0.00    0.00 0.000    0.00    0.00  0.0000   
ZGDA5222       GDANSK 0 0 240.00    0.00    0.00    0.00    0.00    0.00    0.00    0.00    0.00 0.000    0.00    0.00  0.0000   
ZPAT4412       PATNOW 0 0 407.66    0.00    0.00    0.00    0.00    0.00    0.00    0.00    0.00 0.000    0.00    0.00  0.0000   
ZPAT4222       PATNOW 0 0 237.69    0.00    0.00    0.00    0.00    0.00    0.00    0.00    0.00 0.000    0.00    0.00  0.0000   
ZKIE2222       KIELCE 0 0 240.00    0.00    0.00    0.00    0.00    0.00    0.00    0.00    0.00 0.000    0.00    0.00  0.0000   
ZKIE2412       KIELCE 0 0 400.00    0.00    0.00    0.00    0.00    0.00    0.00    0.00    0.00 0.000    0.00    0.00  0.0000   
ZADA4222       ADAMOW 0 0 238.00    0.00    0.00    0.00    0.00    0.00    0.00    0.00    0.00 0.000    0.00    0.00  0.0000   
ZKRA4222      KRAJNIK 0 0 240.22    0.00    0.00    0.00    0.00    0.00    0.00    0.00    0.00 0.000    0.00    0.00  0.0000   
ZWLA5222 WLOCLAWEK AZ 0 0 220.00    0.00    0.00    0.00    0.00    0.00    0.00    0.00    0.00 0.000    0.00    0.00  0.0000   
ZSIE3222      SIERSZA 0 0 220.00    0.00    0.00    0.00    0.00    0.00    0.00    0.00    0.00 0.000    0.00    0.00  0.0000   
ZJOA3222    JOACHIMOW 0 0 235.00    0.00    0.00    0.00    0.00    0.00    0.00    0.00    0.00 0.000    0.00    0.00  0.0000   
ZJOA3412    JOACHIMOW 0 0 400.00    0.00    0.00    0.00    0.00    0.00    0.00    0.00    0.00 0.000    0.00    0.00  0.0000   
ZLAG3222      LAGISZA 0 0 240.00    0.00    0.00    0.00    0.00    0.00    0.00    0.00    0.00 0.000    0.00    0.00  0.0000   
ZLAG3412      LAGISZA 0 0 408.39    0.00    0.00    0.00    0.00    0.00    0.00    0.00    0.00 0.000    0.00    0.00  0.0000   
ZCHM2222     CHMIELOW 0 0 220.00    0.00    0.00    0.00    0.00    0.00    0.00    0.00    0.00 0.000    0.00    0.00  0.0000   
ZZGI1222       ZGIERZ 0 0 220.00    0.00    0.00    0.00    0.00    0.00    0.00    0.00    0.00 0.000    0.00    0.00  0.0000   
ZJAN1222        JANOW 0 0 220.00    0.00    0.00    0.00    0.00    0.00    0.00    0.00    0.00 0.000    0.00    0.00  0.0000   
ZROZ2222        ROZKI 0 0 220.00    0.00    0.00    0.00    0.00    0.00    0.00    0.00    0.00 0.000    0.00    0.00  0.0000   
ZPOL4222    POLKOWICE 0 0 234.00    0.00    0.00    0.00    0.00    0.00    0.00    0.00    0.00 0.000    0.00    0.00  0.0000   
ZPOL4412       POL424 0 0 410.00    0.00    0.00    0.00    0.00    0.00    0.00    0.00    0.00 0.000    0.00    0.00  0.0000   
ZCRN4412       CZARNA 0 0 400.00    0.00    0.00    0.00    0.00    0.00    0.00    0.00    0.00 0.000    0.00    0.00  0.0000   
ZLOS3222      LOSNICE 0 0 220.00    0.00    0.00    0.00    0.00    0.00    0.00    0.00    0.00 0.000    0.00    0.00  0.0000   
ZTRE1412    TREBACZEW 0 0 400.00    0.00    0.00    0.00    0.00    0.00    0.00    0.00    0.00 0.000    0.00    0.00  0.0000   
ZTAW3412       TARNOW 0 0 400.00    0.00    0.00    0.00    0.00    0.00    0.00    0.00    0.00 0.000    0.00    0.00  0.0000   
ZMIL1412      MILOSNA 0 0 400.00    0.00    0.00    0.00    0.00    0.00    0.00    0.00    0.00 0.000    0.00    0.00  0.0000   
ZMIL1222      MILOSNA 0 0 228.00    0.00    0.00    0.00    0.00    0.00    0.00    0.00    0.00 0.000    0.00    0.00  0.0000   
ZMOR1222         MORY 0 0 220.00    0.00    0.00    0.00    0.00    0.00    0.00    0.00    0.00 0.000    0.00    0.00  0.0000   
ZMSK1412     MOSCISKA 0 0 400.00    0.00    0.00    0.00    0.00    0.00    0.00    0.00    0.00 0.000    0.00    0.00  0.0000   
ZNAR1412        NAREW 0 0 410.00    0.00    0.00    0.00    0.00    0.00    0.00    0.00    0.00 0.000    0.00    0.00  0.0000   
ZOST1222    OSTROLEKA 0 0 237.16    0.00    0.00    0.00    0.00    0.00    0.00    0.00    0.00 0.000    0.00    0.00  0.0000   
ZABR2222       ABR222 0 0 220.00    0.00    0.00    0.00    0.00    0.00    0.00    0.00    0.00 0.000    0.00    0.00  0.0000   
ZMKR2222        MOKRE 0 0 220.00    0.00    0.00    0.00    0.00    0.00    0.00    0.00    0.00 0.000    0.00    0.00  0.0000   
ZOSC2412    OSTROWIEC 0 0 400.00    0.00    0.00    0.00    0.00    0.00    0.00    0.00    0.00 0.000    0.00    0.00  0.0000   
ZPUL2222       PULAWY 0 0 236.63    0.00    0.00    0.00    0.00    0.00    0.00    0.00    0.00 0.000    0.00    0.00  0.0000   
ZRAD2222    RADKOWICE 0 0 220.00    0.00    0.00    0.00    0.00    0.00    0.00    0.00    0.00 0.000    0.00    0.00  0.0000   
ZXHB3222       XHB223 0 0 220.00    0.00    0.00    0.00    0.00    0.00    0.00    0.00    0.00 0.000    0.00    0.00  0.0000   
ZGRO3222   GROSZOWICE 0 0 220.00    0.00    0.00    0.00    0.00    0.00    0.00    0.00    0.00 0.000    0.00    0.00  0.0000   
ZJAM3222        JAMKI 0 0 220.00    0.00    0.00    0.00    0.00    0.00    0.00    0.00    0.00 0.000    0.00    0.00  0.0000   
ZKLA3222      KLIKOWA 0 0 232.00    0.00    0.00    0.00    0.00    0.00    0.00    0.00    0.00 0.000    0.00    0.00  0.0000   
ZKOP3222     KOPANINA 0 0 232.85    0.00    0.00    0.00    0.00    0.00    0.00    0.00    0.00 0.000    0.00    0.00  0.0000   
ZXJL3222       XJL223 0 0 220.00    0.00    0.00    0.00    0.00    0.00    0.00    0.00    0.00 0.000    0.00    0.00  0.0000   
ZLUA3222      LUBOCZA 0 0 220.00    0.00    0.00    0.00    0.00    0.00    0.00    0.00    0.00 0.000    0.00    0.00  0.0000   
ZSKA3222      SKAWINA 0 0 234.62    3.27    3.05    0.00    0.00    0.00    0.00    0.00    0.00 0.000    0.00    0.00  0.0000   
ZTCN3412     TUCZNAWA 0 0 400.00    0.00    0.00    0.00    0.00    0.00    0.00    0.00    0.00 0.000    0.00    0.00  0.0000   
ZWAN3222        WANDA 0 0 220.00    0.00    0.00    0.00    0.00    0.00    0.00    0.00    0.00 0.000    0.00    0.00  0.0000   
ZGLN4222       GLINKI 0 0 236.00    0.00    0.00    0.00    0.00    0.00    0.00    0.00    0.00 0.000    0.00    0.00  0.0000   
ZKON4222        KONIN 0 0 237.41    0.00    0.00    0.00    0.00    0.00    0.00    0.00    0.00 0.000    0.00    0.00  0.0000   
ZLSN4222      LESNIOW 0 0 230.00    0.00    0.00    0.00    0.00    0.00    0.00    0.00    0.00 0.000    0.00    0.00  0.0000   
ZPAS4412 PASIKUROWICE 0 0 400.00    0.00    0.00    0.00    0.00    0.00    0.00    0.00    0.00 0.000    0.00    0.00  0.0000   
ZBYD5222       BYD225 0 0 233.00    0.00    0.00    0.00    0.00    0.00    0.00    0.00    0.00 0.000    0.00    0.00  0.0000   
ZGBL5412 GDANSK-BLONI 0 0 400.00    0.00    0.00    0.00    0.00    0.00    0.00    0.00    0.00 0.000    0.00    0.00  0.0000   
ZGRU5222    GRUDZIADZ 0 0 220.00    0.00    0.00    0.00    0.00    0.00    0.00    0.00    0.00 0.000    0.00    0.00  0.0000   
ZJAS5222     JASINIEC 0 0 220.00    0.00    0.00    0.00    0.00    0.00    0.00    0.00    0.00 0.000    0.00    0.00  0.0000   
ZOLS5222      OLSZTYN 0 0 220.00    0.00    0.00    0.00    0.00    0.00    0.00    0.00    0.00 0.000    0.00    0.00  0.0000   
ZOLM5412 OLSZTYN-MATK 0 0 400.00    0.00    0.00    0.00    0.00    0.00    0.00    0.00    0.00 0.000    0.00    0.00  0.0000   
ZOLM5222       OLM225 0 0 240.00    0.00    0.00    0.00    0.00    0.00    0.00    0.00    0.00 0.000    0.00    0.00  0.0000   
ZTEL5222  TORUN ELANA 0 0 220.00    0.00    0.00    0.00    0.00    0.00    0.00    0.00    0.00 0.000    0.00    0.00  0.0000   
ZPIA1222    PIASECZNO 0 0 220.00    0.00    0.00    0.00    0.00    0.00    0.00    0.00    0.00 0.000    0.00    0.00  0.0000   
ZBLA3222   BLACHOWNIA 0 0 220.00    0.00    0.00    0.00    0.00    0.00    0.00    0.00    0.00 0.000    0.00    0.00  0.0000   
ZHAL3222      HALEMBA 0 0 220.00    0.00    0.00    0.00    0.00    0.00    0.00    0.00    0.00 0.000    0.00    0.00  0.0000   
ZKAT3222     KATOWICE 0 0 220.00    0.00    0.00    0.00    0.00    0.00    0.00    0.00    0.00 0.000    0.00    0.00  0.0000   
ZKHK3222  KOKSOCHEMIA 0 0 232.93    0.00    0.00    0.00    0.00    0.00    0.00    0.00    0.00 0.000    0.00    0.00  0.0000   
ZWRZ3222     WRZOSOWA 0 0 220.00    0.00    0.00    0.00    0.00    0.00    0.00    0.00    0.00 0.000    0.00    0.00  0.0000   
ZCZE4222       CZE224 0 0 220.00    0.00    0.00    0.00    0.00    0.00    0.00    0.00    0.00 0.000    0.00    0.00  0.0000   
ZPLC4222       POLICE 0 0 220.00    0.00    0.00    0.00    0.00    0.00    0.00    0.00    0.00 0.000    0.00    0.00  0.0000   
ZZUK4222     ZUKOWICE 0 0 238.00    0.00    0.00    0.00    0.00    0.00    0.00    0.00    0.00 0.000    0.00    0.00  0.0000   
ZRZE2412      RZESZOW 0 0 413.00    0.00    0.00    0.00    0.00    0.00    0.00    0.00    0.00 0.000    0.00    0.00  0.0000   
##ZXX
XEL_AL11     XEL_AL11 0 0 405.00  120.00   44.40    0.00    0.00    0.00    0.00    0.00    0.00 0.000    0.00    0.00  0.0000   
XEL_AL12     XEL_AL12 0 0 405.00    0.00    0.00    0.00    0.00    0.00    0.00    0.00    0.00 0.000    0.00    0.00  0.0000   
XKR_LE11    XKR_LE112 0 0 400.00  358.28  -54.03    0.00    0.00    0.00    0.00    0.00    0.00 0.000    0.00    0.00  0.0000   
XKR_LE12    XKR_LE122 0 0 400.00  358.28  -54.03    0.00    0.00    0.00    0.00    0.00    0.00 0.000    0.00    0.00  0.0000   
XZA_DO21     XZA_DO21 0 0 220.00    0.00    0.00    0.00    0.00    0.00    0.00    0.00    0.00 0.000    0.00    0.00  0.0000   
XLI_BU21    XLI_BU213 0 0 226.98   98.65  -24.65    0.00    0.00    0.00    0.00    0.00    0.00 0.000    0.00    0.00  0.0000   
XAL_DB11     XAL_DB11 0 0 411.49    0.00    0.00    0.00    0.00    0.00    0.00    0.00    0.00 0.000    0.00    0.00  0.0000   
XLI_KO21    XLI_KO213 0 0 233.41  130.60  -28.54    0.00    0.00    0.00    0.00    0.00    0.00 0.000    0.00    0.00  0.0000   
XNO_WI11    XNO_WI113 0 0 412.16  611.76 -157.58    0.00    0.00    0.00    0.00    0.00    0.00 0.000    0.00    0.00  0.0000   
XHG_MI11    XHG_MI114 0 0 400.00    0.00    0.00 -414.70   58.10    0.00    0.00   58.10   58.10 0.000    0.00    0.00  0.0000   
XHG_MI12    XHG_MI124 0 0 400.00    0.00    0.00 -410.74   57.90    0.00    0.00   57.90   57.90 0.000    0.00    0.00  0.0000   
XVI_KR11     XVI_KR11 0 0 407.16    0.00    0.00 -251.91   89.60    0.00    0.00   89.60   89.60 0.000    0.00    0.00  0.0000   
XVI_KR12     XVI_KR12 0 0 407.16    0.00    0.00    0.00    0.00    0.00    0.00    0.00    0.00 0.000    0.00    0.00  0.0000   
XSL_SW11     XSL_SW11 0 0 403.70   -2.00    0.00 -600.00  240.00    0.00    0.00  240.00  240.00 0.000    0.00    0.00  0.0000   
##ZPL
ZBEEG114       BEE14G 0 2 401.69   54.85  103.46 -677.00   95.69 -429.00 -720.00  326.60 -653.10 0.000    0.00    0.00  0.0000   
ZBLAG051       BLA01G 0 2 118.16    6.34   -2.74  -33.10   -2.43   -1.00  -55.00    0.00  -41.00 0.000    0.00    0.00  0.0000   
ZBYCG021       BYC01G 0 2 233.33   12.79   16.08 -140.00  -36.62 -140.00 -225.00   18.00 -164.00 0.000    0.00    0.00  0.0000   
ZBYCG025       BYC05G 0 2 233.33   12.79   16.08 -151.00  -36.63 -140.00 -220.00   16.40 -160.70 0.000    0.00    0.00  0.0000   
ZBYCG026       BYC06G 0 2 233.33    1.00    0.00   -1.00    0.00  -18.70 -225.00   18.00 -164.00 0.000    0.00    0.00  0.0000   
ZBYCG022       BYC02G 0 0 233.33    1.00    0.00   -1.00    0.00   -7.00 -225.00   18.00 -164.00 0.000    0.00    0.00  0.0000   
ZBYCG024       BYC04G 0 0 233.33    1.00    0.00   -1.00    0.00 -140.00 -225.00   18.00 -164.00 0.000    0.00    0.00  0.0000   
ZBYCG017       BYC07G 0 2 406.34   22.85  101.37 -820.00  167.92 -364.00 -820.00  421.50 -679.20 0.000    0.00    0.00  0.0000   
ZDBNG051       DBN01G 0 0 120.27    1.00    0.00   -1.00    0.00 -180.00 -386.00   51.00 -304.00 0.000    0.00    0.00  0.0000   
ZDBNG052       DBN02G 0 0 120.27    1.00    0.00   -1.00    0.00 -180.00 -383.00   51.00 -304.00 0.000    0.00    0.00  0.0000   
ZDBNG013       DBN03G 0 2 408.28   20.30   41.02 -240.00   29.39 -240.00 -240.00   46.00 -277.80 0.000    0.00    0.00  0.0000   
ZDBNG014       DBN04G 0 2 408.28   20.30   41.02 -180.00   29.45 -180.00 -240.00   60.00 -119.00 0.000    0.00    0.00  0.0000   
ZDBNG015       DBN05G 0 2 408.28   20.30   41.02 -450.00   29.06 -450.00 -450.00  453.80 -824.60 0.000    0.00    0.00  0.0000   
ZDBNG016       DBN06G 0 2 408.28   20.30   41.02 -450.00   29.06 -450.00 -450.00  453.70 -824.60 0.000    0.00    0.00  0.0000   
ZDODG051       DOD01G 0 2 117.73  200.56    2.31 -198.81  -10.64 -110.00 -222.00   53.50 -159.90 0.000    0.00    0.00  0.0000   
ZEPLG011       EPL01G 0 2 404.58   33.17   81.31 -320.00  201.97 -320.00 -560.00  279.30 -500.10 0.000    0.00    0.00  0.0000   
...